/*--------------------------------*- C++ -*----------------------------------*\
| =========                 |                                                 |
| \\      /  F ield         | OpenFOAM: The Open Source CFD Toolbox           |
|  \\    /   O peration     | Version:  2312                                  |
|   \\  /    A nd           | Website:  www.openfoam.com                      |
|    \\/     M anipulation  |                                                 |
\*---------------------------------------------------------------------------*/
FoamFile
{
    version     2.0;
    format      ascii;
    arch        "LSB;label=32;scalar=64";
    class       polyBoundaryMesh;
    location    "constant/polyMesh";
    object      boundary;
}
// * * * * * * * * * * * * * * * * * * * * * * * * * * * * * * * * * * * * * //

5
(
    frontAndBack
    {
        type            empty;
        physicalType    patch;
        nFaces          800;
        startFace       760;
    }
    bottomWalls
    {
        type            patch;
        physicalType    patch;
        nFaces          20;
        startFace       1560;
    }
    rightWalls
    {
        type            patch;
        physicalType    patch;
        nFaces          20;
        startFace       1580;
    }
    topWalls
    {
        type            patch;
        physicalType    patch;
        nFaces          20;
        startFace       1600;
    }
    leftWalls
    {
        type            patch;
        physicalType    patch;
        nFaces          20;
        startFace       1620;
    }
)

// ************************************************************************* //
